  <title>Assay Detail</title>

  <h1>Assay Detail</h1>

<h2>Assay Info</h2>

<dl class="detailPageListData">
  <dt>Reference</dt>
  <dd>
        <a href="/pwi/summary/reference?accids=J%3A100919">
          J:100919
    </a>
    Nagai Y, Genesis 2005 Sep;43(1):12-6
  <dd>

  <dt>Assay Type</dt>
  <dd>In situ reporter (transgenic)</dd>

  <dt>MGI ID</dt>
  <dd>MGI:4940881 </dd>

  <dt>Public Page</dt>
  <dd><a class="external" href="http://www.informatics.jax.org/assay/MGI:4940881">Assay Detail</a></dd>

  <dt>Assayed Gene</dt>
  <dd><a href="/pwi/detail/marker/MGI:3603200">Tg(Pcdh21-cre)BYoko</a>
  </dd>

  <dt>Gene Name</dt>
  <dd>transgene insertion B, Mineto Yokoi</dd>
  
  <dt>Modification Date</dt>
  <dd>2018-02-27 at  9:45AM</dd>

</dl>




<h3>Antibody Info</h3>
<dl class="detailPageListData wide">

  <dt title="Displaying text superscripted">Antibody</dt>
  <dd>
    <a href="/pwi/detail/antibody/MGI:4830302">anti-cre (Millipore)</a>,
    <a class="external" href="http://www.informatics.jax.org/searches/antibody.cgi?4540">Public Detail Page</a>
  </dd>

  <dt>Secondary</dt>
  <dd>Secondary antibody</dd>

  <dt>Labeled With</dt>
  <dd>Cy3</dd>

</dl>



<h3>Reporter Info</h3>
<dl class="detailPageListData wide">

  <dt>Reporter Gene</dt>
  <dd>Cre</dd>
  
  <dt>Detection Method</dt>
  <dd>antibody</dd>

</dl>





<h3>Specimens</h3>



<div class="specimenDetail">

<div class="specimenImagePanes">

  <hr>
  <h4>Image(s)</h4>



  <div class="imagePaneWrapper">
    <a href="/pwi/detail/image/MGI:4940885">
    <div style="position:relative;width:119px;height:250px;"><img width="119" height="250" style="position:absolute;left:-0px;top:-0px;clip: rect(0px 119px 250px 0px);" src="http://bhmgipub01lt.jax.org/webshare/fetch_pixels.cgi?id=352931" /></div>
    1C top brain section
    </a>
  </div>



</div>

<dl class="detailPageListData wide">

  <dt title="Displaying text superscripted">Specimen Label</dt>
  <dd style="font-size: 130%;">Fig. 1C top brain section</dd>

  <dt title="Displaying text superscripted">Genetic Background</dt>
  <dd>involves: 129X1/SvJ * C57BL/6</dd>

  <dt>Mutant Allele(s)</dt>
  <dd>
    Tg(Pcdh21-cre)BYoko/0&nbsp;
    
  </dd>

  <dt>Age</dt>
  <dd>postnatal</dd>

  <dt>Age Note</dt>
  <dd>&nbsp;</dd>

  <dt>Sex</dt>
  <dd>Not Specified</dd>

  <dt>Hybridization</dt>
  <dd>section</dd>

  <dt>Fixation</dt>
  <dd>4% Paraformaldehyde</dd>

  <dt>Embedding</dt>
  <dd>Cryosection</dd>

  
    <dt title="Displaying text Superscripted">Specimen Note</dt>
    <dd>Parasagittal section.&nbsp;</dd>
  

</dl>




<table class="dataTable">
<tr>
  <th>Structure</th>
  <th>Strength</th>
  <th>Pattern</th>
  <th>Figure Label</th>
  <th>Result Note</th>
</tr>


    
    <tr>

      <td>
        <a href="/pwi/edit/emapaBrowser/?termSearch=accessory olfactory bulb external plexiform layer&stageSearch=28">
              TS28: accessory olfactory bulb external plexiform layer
            </a>
      </td>
      <td>Strong</td>
      <td>Not Specified</td>
      <td>
      
        
        1C top brain section
        <a href="/pwi/detail/image/MGI:4940885">(Image)</a>
       
      </td>
      <td>
        
          
          
          <span title="Display text HTML enabled">
            Expression is observed only in mitral and tufted cells of the accessory olfactory bulb.
          </span>
          
         
        
      </td>

    </tr>
    
    <tr>

      <td>
        <a href="/pwi/edit/emapaBrowser/?termSearch=accessory olfactory bulb mitral cell layer&stageSearch=28">
              TS28: accessory olfactory bulb mitral cell layer
            </a>
      </td>
      <td>Strong</td>
      <td>Not Specified</td>
      <td>
      
        
        1C top brain section
        <a href="/pwi/detail/image/MGI:4940885">(Image)</a>
       
      </td>
      <td>
        
          
          
          <span title="Display text HTML enabled">
            Expression is observed only in mitral and tufted cells of the accessory olfactory bulb.
          </span>
          
         
        
      </td>

    </tr>
     

    
    <tr>

      <td>
        <a href="/pwi/edit/emapaBrowser/?termSearch=main olfactory bulb external plexiform layer&stageSearch=28">
              TS28: main olfactory bulb external plexiform layer
            </a>
      </td>
      <td>Strong</td>
      <td>Not Specified</td>
      <td>
      
        
        1C top brain section
        <a href="/pwi/detail/image/MGI:4940885">(Image)</a>
       
      </td>
      <td>
        
          
          
          <span title="Display text HTML enabled">
            Expression is observed only in mitral and tufted cells of the main olfactory bulb.
          </span>
          
         
        
      </td>

    </tr>
    
    <tr>

      <td>
        <a href="/pwi/edit/emapaBrowser/?termSearch=main olfactory bulb mitral cell layer&stageSearch=28">
              TS28: main olfactory bulb mitral cell layer
            </a>
      </td>
      <td>Strong</td>
      <td>Not Specified</td>
      <td>
      
        
        1C top brain section
        <a href="/pwi/detail/image/MGI:4940885">(Image)</a>
       
      </td>
      <td>
        
          
          
          <span title="Display text HTML enabled">
            Expression is observed only in mitral and tufted cells of the main olfactory bulb.
          </span>
          
         
        
      </td>

    </tr>
     

    
    <tr>

      <td>
        <a href="/pwi/edit/emapaBrowser/?termSearch=brain&stageSearch=28">
              TS28: brain
            </a>
      </td>
      <td>Weak</td>
      <td>Scattered</td>
      <td>
      
        
        1C top brain section
        <a href="/pwi/detail/image/MGI:4940885">(Image)</a>
       
      </td>
      <td>
        
          
          
          <span title="Display text HTML enabled">
            Expression is observed in a few cells scattered in brain regions other than the olfactory bulbs.
          </span>
          
         
        
      </td>

    </tr>
     
 

</table>


</div>

<div class="specimenDetail">

<div class="specimenImagePanes">

  <hr>
  <h4>Image(s)</h4>



  <div class="imagePaneWrapper">
    <a href="/pwi/detail/image/MGI:4940888">
    <div style="position:relative;width:166px;height:250px;"><img width="166" height="250" style="position:absolute;left:-0px;top:-0px;clip: rect(0px 166px 250px 0px);" src="http://bhmgipub01lt.jax.org/webshare/fetch_pixels.cgi?id=352932" /></div>
    2Bb
    </a>
  </div>



  <div class="imagePaneWrapper">
    <a href="/pwi/detail/image/MGI:4940888">
    <div style="position:relative;width:166px;height:250px;"><img width="166" height="250" style="position:absolute;left:-0px;top:-0px;clip: rect(0px 166px 250px 0px);" src="http://bhmgipub01lt.jax.org/webshare/fetch_pixels.cgi?id=352932" /></div>
    2Bd
    </a>
  </div>



</div>

<dl class="detailPageListData wide">

  <dt title="Displaying text superscripted">Specimen Label</dt>
  <dd style="font-size: 130%;">Fig. 2Bb</dd>

  <dt title="Displaying text superscripted">Genetic Background</dt>
  <dd>involves: 129X1/SvJ * C57BL/6</dd>

  <dt>Mutant Allele(s)</dt>
  <dd>
    Gt(ROSA)26Sor<sup>tm2(ECFP)Cos</sup>/Gt(ROSA)26Sor<sup>+</sup><br/>Tg(Pcdh21-cre)BYoko/0&nbsp;
    
    <br/>(conditional)
    
  </dd>

  <dt>Age</dt>
  <dd>postnatal</dd>

  <dt>Age Note</dt>
  <dd>&nbsp;</dd>

  <dt>Sex</dt>
  <dd>Not Specified</dd>

  <dt>Hybridization</dt>
  <dd>section</dd>

  <dt>Fixation</dt>
  <dd>4% Paraformaldehyde</dd>

  <dt>Embedding</dt>
  <dd>Cryosection</dd>

  
    <dt title="Displaying text Superscripted">Specimen Note</dt>
    <dd>&nbsp;</dd>
  

</dl>




<table class="dataTable">
<tr>
  <th>Structure</th>
  <th>Strength</th>
  <th>Pattern</th>
  <th>Figure Label</th>
  <th>Result Note</th>
</tr>


    
    <tr>

      <td>
        <a href="/pwi/edit/emapaBrowser/?termSearch=accessory olfactory bulb&stageSearch=28">
              TS28: accessory olfactory bulb
            </a>
      </td>
      <td>Present</td>
      <td>Not Specified</td>
      <td>
      
        
        2Bb
        <a href="/pwi/detail/image/MGI:4940888">(Image)</a>
      
         , 
        2Bd
        <a href="/pwi/detail/image/MGI:4940888">(Image)</a>
       
      </td>
      <td>
        
      </td>

    </tr>
     
 

</table>


</div>

<div class="specimenDetail">

<div class="specimenImagePanes">

  <hr>
  <h4>Image(s)</h4>



  <div class="imagePaneWrapper">
    <a href="/pwi/detail/image/MGI:4940888">
    <div style="position:relative;width:166px;height:250px;"><img width="166" height="250" style="position:absolute;left:-0px;top:-0px;clip: rect(0px 166px 250px 0px);" src="http://bhmgipub01lt.jax.org/webshare/fetch_pixels.cgi?id=352932" /></div>
    2Cb
    </a>
  </div>



  <div class="imagePaneWrapper">
    <a href="/pwi/detail/image/MGI:4940888">
    <div style="position:relative;width:166px;height:250px;"><img width="166" height="250" style="position:absolute;left:-0px;top:-0px;clip: rect(0px 166px 250px 0px);" src="http://bhmgipub01lt.jax.org/webshare/fetch_pixels.cgi?id=352932" /></div>
    2Cd
    </a>
  </div>



</div>

<dl class="detailPageListData wide">

  <dt title="Displaying text superscripted">Specimen Label</dt>
  <dd style="font-size: 130%;">Fig. 2Cb</dd>

  <dt title="Displaying text superscripted">Genetic Background</dt>
  <dd>involves: 129X1/SvJ * C57BL/6</dd>

  <dt>Mutant Allele(s)</dt>
  <dd>
    Gt(ROSA)26Sor<sup>tm2(ECFP)Cos</sup>/Gt(ROSA)26Sor<sup>+</sup><br/>Tg(Pcdh21-cre)BYoko/0&nbsp;
    
    <br/>(conditional)
    
  </dd>

  <dt>Age</dt>
  <dd>postnatal</dd>

  <dt>Age Note</dt>
  <dd>&nbsp;</dd>

  <dt>Sex</dt>
  <dd>Not Specified</dd>

  <dt>Hybridization</dt>
  <dd>section</dd>

  <dt>Fixation</dt>
  <dd>4% Paraformaldehyde</dd>

  <dt>Embedding</dt>
  <dd>Cryosection</dd>

  
    <dt title="Displaying text Superscripted">Specimen Note</dt>
    <dd>&nbsp;</dd>
  

</dl>




<table class="dataTable">
<tr>
  <th>Structure</th>
  <th>Strength</th>
  <th>Pattern</th>
  <th>Figure Label</th>
  <th>Result Note</th>
</tr>


    
    <tr>

      <td>
        <a href="/pwi/edit/emapaBrowser/?termSearch=main olfactory bulb&stageSearch=28">
              TS28: main olfactory bulb
            </a>
      </td>
      <td>Present</td>
      <td>Not Specified</td>
      <td>
      
        
        2Cb
        <a href="/pwi/detail/image/MGI:4940888">(Image)</a>
      
         , 
        2Cd
        <a href="/pwi/detail/image/MGI:4940888">(Image)</a>
       
      </td>
      <td>
        
      </td>

    </tr>
     
 

</table>


</div>

<div class="specimenDetail">

<div class="specimenImagePanes">

  <hr>
  <h4>Image(s)</h4>



  <div class="imagePaneWrapper">
    <a href="/pwi/detail/image/MGI:4940888">
    <div style="position:relative;width:166px;height:250px;"><img width="166" height="250" style="position:absolute;left:-0px;top:-0px;clip: rect(0px 166px 250px 0px);" src="http://bhmgipub01lt.jax.org/webshare/fetch_pixels.cgi?id=352932" /></div>
    2Eb
    </a>
  </div>



  <div class="imagePaneWrapper">
    <a href="/pwi/detail/image/MGI:4940888">
    <div style="position:relative;width:166px;height:250px;"><img width="166" height="250" style="position:absolute;left:-0px;top:-0px;clip: rect(0px 166px 250px 0px);" src="http://bhmgipub01lt.jax.org/webshare/fetch_pixels.cgi?id=352932" /></div>
    2Ed
    </a>
  </div>



</div>

<dl class="detailPageListData wide">

  <dt title="Displaying text superscripted">Specimen Label</dt>
  <dd style="font-size: 130%;">Fig. 2Eb</dd>

  <dt title="Displaying text superscripted">Genetic Background</dt>
  <dd>involves: 129X1/SvJ * C57BL/6</dd>

  <dt>Mutant Allele(s)</dt>
  <dd>
    Gt(ROSA)26Sor<sup>tm2(ECFP)Cos</sup>/Gt(ROSA)26Sor<sup>+</sup><br/>Tg(Pcdh21-cre)BYoko/0&nbsp;
    
    <br/>(conditional)
    
  </dd>

  <dt>Age</dt>
  <dd>postnatal</dd>

  <dt>Age Note</dt>
  <dd>&nbsp;</dd>

  <dt>Sex</dt>
  <dd>Not Specified</dd>

  <dt>Hybridization</dt>
  <dd>section</dd>

  <dt>Fixation</dt>
  <dd>4% Paraformaldehyde</dd>

  <dt>Embedding</dt>
  <dd>Cryosection</dd>

  
    <dt title="Displaying text Superscripted">Specimen Note</dt>
    <dd>&nbsp;</dd>
  

</dl>




<table class="dataTable">
<tr>
  <th>Structure</th>
  <th>Strength</th>
  <th>Pattern</th>
  <th>Figure Label</th>
  <th>Result Note</th>
</tr>


    
    <tr>

      <td>
        <a href="/pwi/edit/emapaBrowser/?termSearch=anterior olfactory nucleus&stageSearch=28">
              TS28: anterior olfactory nucleus
            </a>
      </td>
      <td>Present</td>
      <td>Not Specified</td>
      <td>
      
        
        2Eb
        <a href="/pwi/detail/image/MGI:4940888">(Image)</a>
      
         , 
        2Ed
        <a href="/pwi/detail/image/MGI:4940888">(Image)</a>
       
      </td>
      <td>
        
      </td>

    </tr>
     
 

</table>


</div>

<div class="specimenDetail">

<div class="specimenImagePanes">

  <hr>
  <h4>Image(s)</h4>



  <div class="imagePaneWrapper">
    <a href="/pwi/detail/image/MGI:4940888">
    <div style="position:relative;width:166px;height:250px;"><img width="166" height="250" style="position:absolute;left:-0px;top:-0px;clip: rect(0px 166px 250px 0px);" src="http://bhmgipub01lt.jax.org/webshare/fetch_pixels.cgi?id=352932" /></div>
    2Fb
    </a>
  </div>



  <div class="imagePaneWrapper">
    <a href="/pwi/detail/image/MGI:4940888">
    <div style="position:relative;width:166px;height:250px;"><img width="166" height="250" style="position:absolute;left:-0px;top:-0px;clip: rect(0px 166px 250px 0px);" src="http://bhmgipub01lt.jax.org/webshare/fetch_pixels.cgi?id=352932" /></div>
    2Fd
    </a>
  </div>



</div>

<dl class="detailPageListData wide">

  <dt title="Displaying text superscripted">Specimen Label</dt>
  <dd style="font-size: 130%;">Fig. 2Fb</dd>

  <dt title="Displaying text superscripted">Genetic Background</dt>
  <dd>involves: 129X1/SvJ * C57BL/6</dd>

  <dt>Mutant Allele(s)</dt>
  <dd>
    Gt(ROSA)26Sor<sup>tm2(ECFP)Cos</sup>/Gt(ROSA)26Sor<sup>+</sup><br/>Tg(Pcdh21-cre)BYoko/0&nbsp;
    
    <br/>(conditional)
    
  </dd>

  <dt>Age</dt>
  <dd>postnatal</dd>

  <dt>Age Note</dt>
  <dd>&nbsp;</dd>

  <dt>Sex</dt>
  <dd>Not Specified</dd>

  <dt>Hybridization</dt>
  <dd>section</dd>

  <dt>Fixation</dt>
  <dd>4% Paraformaldehyde</dd>

  <dt>Embedding</dt>
  <dd>Cryosection</dd>

  
    <dt title="Displaying text Superscripted">Specimen Note</dt>
    <dd>&nbsp;</dd>
  

</dl>




<table class="dataTable">
<tr>
  <th>Structure</th>
  <th>Strength</th>
  <th>Pattern</th>
  <th>Figure Label</th>
  <th>Result Note</th>
</tr>


    
    <tr>

      <td>
        <a href="/pwi/edit/emapaBrowser/?termSearch=piriform cortex&stageSearch=28">
              TS28: piriform cortex
            </a>
      </td>
      <td>Present</td>
      <td>Not Specified</td>
      <td>
      
        
        2Fb
        <a href="/pwi/detail/image/MGI:4940888">(Image)</a>
      
         , 
        2Fd
        <a href="/pwi/detail/image/MGI:4940888">(Image)</a>
       
      </td>
      <td>
        
          
          
          <span title="Display text HTML enabled">
            Expression is observed in the anterior piriform cortex.
          </span>
          
         
        
      </td>

    </tr>
     
 

</table>


</div>






<hr/>
<h4>P-WI Assay Detail functionality:</h4>
<ul>
        <li>The Assay Detail page displays data for any assay in the GXD tables - both GXD and Cre assay types.</li>
        <li>The URL supports <em>/detail/assay/MGI:(number)</em> or <em>/detail/assay/key/(number)</em>.</li>
        <li>Thumbnail images, gel assay image labels, and the "Figure Label" column of in situ assays are linked to the appropriate Image Detail page.</li>
        <li>Conditional gentoypes are indicated by text "(conditional)" below the allele pairs for a Specimen (in situs) or a Lane (blots).</li>
        <li>Age values are displayed as saved in the database. Code does not use logic to translate into abbreviations as on Public.</li>
</ul>
Notes fields:
<ul>
        <li>Three notes fields are displayed "translated" as they would be on public for GXD pages and for Cre pages. Hover your mouse pointer over the Label to see how the note text is being translated (verbatim, "HTML-enabled" (interprets angle brackets as HTML tags), MGI-markup (interprets angle brackets as indicating superscript) and/or using Notes Tag converter).
                <ul>
                <li>Assay Notes</li>
                <li>Specimen Notes</li>
                <li>Result Notes</li>
                </ul>
        </li>
        <li>Notes translated in the format of Cre Public WI pages are displayed <em>only for Cre assay types</em>.</li>
        <li>Blot data and Notes are displayed as simply as possible:
                <ul>
                <li>Lane labels, if any, are translated from MGI markup (angle brackets for superscript).</li>
                <li>Lanes are numbered in the results table. Rows are numbered when 2 or more exist. </li>
                <li>Lane Notes and Age Notes are displayed at the end of each Lane in the results table. </li>
                <li>Row Notes and Band Notes are displayed in separate tables below the results table.</li>
                <li>The presence of one or more Band Notes for a Lane is indicated by an "*" (asterisk) in the appropriate Lane in the results table.</li>
                <li>Lane and Row numbers in the results table are displayed as Lane # and Gelrow # with any Notes. Lane and Row label text, if any, is shown in boldface.</li>
                </ul>
        </li>
</ul>


</main>

</body>
</html>
